@<TRIPOS>MOLECULE
PEO
   46    45     1     0     0
SMALL
bcc


@<TRIPOS>ATOM
      1 C            0.6590     0.4410    -1.5370 c3         1 PEO       0.130400
      2 H           -0.2590     0.8500    -2.0190 h1         1 PEO       0.042700
      3 H1           1.3170     1.2820    -1.2190 h1         1 PEO       0.042700
      4 C1          -4.0690    -0.0240     8.0270 c3         1 PEO       0.132400
      5 C2           0.2780    -0.4040    -0.3310 c3         1 PEO       0.129400
      6 H2           1.1970    -0.8140     0.1500 h1         1 PEO       0.041700
      7 H3          -0.3790    -1.2460    -0.6510 h1         1 PEO       0.041700
      8 C3          -4.8050     0.9240     8.9700 c3         1 PEO      -0.097100
      9 C4           1.7420     0.3290    -3.6100 c3         1 PEO       0.130400
     10 H4           0.8400     0.7370    -4.1220 h1         1 PEO       0.042700
     11 H5           2.4160     1.1690    -3.3220 h1         1 PEO       0.042700
     12 O           -3.6810     0.6900     6.8790 os         1 PEO      -0.428600
     13 C5           2.4750    -0.6310    -4.5340 c3         1 PEO       0.128400
     14 H6           3.3760    -1.0380    -4.0200 h1         1 PEO       0.039700
     15 H7           1.8000    -1.4710    -4.8210 h1         1 PEO       0.039700
     16 C6           3.5590    -0.7520    -6.6040 c3         1 PEO       0.133400
     17 H8           4.4740    -1.1610    -6.1180 h1         1 PEO       0.027700
     18 H9           2.8990    -1.5940    -6.9170 h1         1 PEO       0.027700
     19 C7           3.9480     0.0840    -7.8230 c3         1 PEO      -0.085400
     20 H10          3.0300     0.5120    -8.2910 hc         1 PEO       0.054700
     21 H11          4.5880     0.9400    -7.5000 hc         1 PEO       0.054700
     22 O1           1.3480    -0.3710    -2.4550 os         1 PEO      -0.430600
     23 O2           2.8700     0.0670    -5.6910 os         1 PEO      -0.428600
     24 C8           4.7060    -0.7500    -8.8650 c3         1 PEO      -0.093100
     25 H12          4.9840    -0.1300    -9.7480 hc         1 PEO       0.035367
     26 H13          5.6440    -1.1710    -8.4370 hc         1 PEO       0.035367
     27 H14          4.0830    -1.5990    -9.2290 hc         1 PEO       0.035367
     28 C9          -0.8020    -0.3040     1.7420 c3         1 PEO       0.129400
     29 H15         -1.4740    -1.1440     1.4500 h1         1 PEO       0.041700
     30 H16          0.1020    -0.7130     2.2500 h1         1 PEO       0.041700
     31 C10         -1.5360     0.6460     2.6760 c3         1 PEO       0.130400
     32 H17         -0.8630     1.4850     2.9690 h1         1 PEO       0.042700
     33 H18         -2.4400     1.0540     2.1680 h1         1 PEO       0.042700
     34 O3          -0.4110     0.4040     0.5910 os         1 PEO      -0.429600
     35 C11         -2.6140     0.7390     4.7510 c3         1 PEO       0.130400
     36 H19         -1.9570     1.5790     5.0740 h1         1 PEO       0.042700
     37 H20         -3.5340     1.1500     4.2730 h1         1 PEO       0.042700
     38 O4          -1.9250    -0.0650     3.8250 os         1 PEO      -0.430600
     39 C12         -2.9920    -0.1140     5.9530 c3         1 PEO       0.127400
     40 H21         -3.6490    -0.9550     5.6300 h1         1 PEO       0.039700
     41 H22         -2.0720    -0.5260     6.4300 h1         1 PEO       0.039700
     42 H23         -4.7430    -0.8630     7.7350 h1         1 PEO       0.025700
     43 H24         -3.1650    -0.4340     8.5350 h1         1 PEO       0.025700
     44 H25         -5.1300     0.3940     9.8940 hc         1 PEO       0.045367
     45 H26         -4.1520     1.7730     9.2760 hc         1 PEO       0.045367
     46 H27         -5.7140     1.3480     8.4830 hc         1 PEO       0.045367
@<TRIPOS>BOND
     1     1     2 1   
     2     1     3 1   
     3     1     5 1   
     4     1    22 1   
     5     4     8 1   
     6     4    12 1   
     7     4    42 1   
     8     4    43 1   
     9     5     6 1   
    10     5     7 1   
    11     5    34 1   
    12     8    44 1   
    13     8    45 1   
    14     8    46 1   
    15     9    10 1   
    16     9    11 1   
    17     9    13 1   
    18     9    22 1   
    19    12    39 1   
    20    13    14 1   
    21    13    15 1   
    22    13    23 1   
    23    16    17 1   
    24    16    18 1   
    25    16    19 1   
    26    16    23 1   
    27    19    20 1   
    28    19    21 1   
    29    19    24 1   
    30    24    25 1   
    31    24    26 1   
    32    24    27 1   
    33    28    29 1   
    34    28    30 1   
    35    28    31 1   
    36    28    34 1   
    37    31    32 1   
    38    31    33 1   
    39    31    38 1   
    40    35    36 1   
    41    35    37 1   
    42    35    38 1   
    43    35    39 1   
    44    39    40 1   
    45    39    41 1   
@<TRIPOS>SUBSTRUCTURE
     1 PEO         1 TEMP              0 ****  ****    0 ROOT
