@<TRIPOS>MOLECULE
*****
   45    44     1     0     0
SMALL
bcc


@<TRIPOS>ATOM
      1 O            0.7420     0.3380     1.1220 oh         1 UNL      -0.596800
      2 C            1.9100     0.0390     1.8860 c3         1 UNL       0.127400
      3 C1           1.9700     0.9610     3.1180 c3         1 UNL      -0.120400
      4 H            2.7980     0.1880     1.2650 h1         1 UNL       0.044700
      5 H1           1.8730    -1.0060     2.2060 h1         1 UNL       0.044700
      6 C2           3.2230     0.6730     3.9710 c3         1 UNL      -0.075400
      7 H2           1.0720     0.8130     3.7250 hc         1 UNL       0.050200
      8 H3           1.9800     2.0040     2.7930 hc         1 UNL       0.050200
      9 C3           3.2740     1.5960     5.2070 c3         1 UNL      -0.079400
     10 H4           4.1200     0.8240     3.3640 hc         1 UNL       0.042700
     11 H5           3.2130    -0.3710     4.2940 hc         1 UNL       0.042700
     12 C4           4.5240     1.3260     6.0750 c3         1 UNL      -0.127400
     13 H6           2.3760     1.4440     5.8100 hc         1 UNL       0.059200
     14 H7           3.2800     2.6390     4.8800 hc         1 UNL       0.059200
     15 C5           4.5920     2.2290     7.2930 c          1 UNL       0.632100
     16 H8           5.4280     1.4730     5.4790 hc         1 UNL       0.078700
     17 H9           4.5240     0.2850     6.4090 hc         1 UNL       0.078700
     18 O1           5.6740     1.9610     8.0580 os         1 UNL      -0.443900
     19 C6           5.8740     2.7510     9.2550 c3         1 UNL       0.139400
     20 C7           7.1470     2.2680     9.9720 c3         1 UNL      -0.085400
     21 H10          5.0060     2.6300     9.9100 h1         1 UNL       0.052200
     22 H11          5.9750     3.8040     8.9740 h1         1 UNL       0.052200
     23 C8           7.3910     3.0880    11.2560 c3         1 UNL      -0.078400
     24 H12          8.0040     2.3680     9.3000 hc         1 UNL       0.057200
     25 H13          7.0430     1.2090    10.2220 hc         1 UNL       0.057200
     26 C9           8.6520     2.6070    12.0050 c3         1 UNL      -0.078400
     27 H14          6.5220     2.9990    11.9130 hc         1 UNL       0.044200
     28 H15          7.5020     4.1440    10.9960 hc         1 UNL       0.044200
     29 C10          8.8870     3.4320    13.2920 c3         1 UNL      -0.127400
     30 H16          9.5230     2.6970    11.3520 hc         1 UNL       0.059700
     31 H17          8.5400     1.5510    12.2660 hc         1 UNL       0.059700
     32 C11         10.1070     2.9810    14.0710 c          1 UNL       0.631100
     33 H18          8.0120     3.3560    13.9420 hc         1 UNL       0.078700
     34 H19          9.0060     4.4870    13.0360 hc         1 UNL       0.078700
     35 O2          10.2770     3.7160    15.1910 os         1 UNL      -0.444900
     36 C12         11.3930     3.4080    16.0610 c3         1 UNL       0.138400
     37 C13         11.3720     4.3800    17.2500 c3         1 UNL      -0.100100
     38 H20         12.3270     3.5180    15.5020 h1         1 UNL       0.051200
     39 H21         11.2990     2.3770    16.4160 h1         1 UNL       0.051200
     40 H22         11.4640     5.4110    16.9030 hc         1 UNL       0.047700
     41 H23         12.2020     4.1670    17.9270 hc         1 UNL       0.047700
     42 H24         10.4380     4.2820    17.8080 hc         1 UNL       0.047700
     43 H25          0.8000     1.2600     0.8130 ho         1 UNL       0.397000
     44 O3           3.7720     3.0930     7.5450 o          1 UNL      -0.543000
     45 O4          10.8350     2.0660    13.7320 o          1 UNL      -0.544000
@<TRIPOS>BOND
     1     1     2 1   
     2     1    43 1   
     3     2     3 1   
     4     2     4 1   
     5     2     5 1   
     6     3     6 1   
     7     3     7 1   
     8     3     8 1   
     9     6     9 1   
    10     6    10 1   
    11     6    11 1   
    12     9    12 1   
    13     9    13 1   
    14     9    14 1   
    15    12    15 1   
    16    12    16 1   
    17    12    17 1   
    18    15    18 1   
    19    15    44 2   
    20    18    19 1   
    21    19    20 1   
    22    19    21 1   
    23    19    22 1   
    24    20    23 1   
    25    20    24 1   
    26    20    25 1   
    27    23    26 1   
    28    23    27 1   
    29    23    28 1   
    30    26    29 1   
    31    26    30 1   
    32    26    31 1   
    33    29    32 1   
    34    29    33 1   
    35    29    34 1   
    36    32    35 1   
    37    32    45 2   
    38    35    36 1   
    39    36    37 1   
    40    36    38 1   
    41    36    39 1   
    42    37    40 1   
    43    37    41 1   
    44    37    42 1   
@<TRIPOS>SUBSTRUCTURE
     1 UNL         1 TEMP              0 ****  ****    0 ROOT
