@<TRIPOS>MOLECULE
*****
 31 31 0 0 0
SMALL
GASTEIGER

@<TRIPOS>ATOM
      1 C          -4.7249    0.4537   -3.7856 C.3     1  UNL1111    -0.0587
      2 C          -3.6224   -0.5440   -3.4002 C.3     1  UNL1111    -0.0215
      3 H          -4.2992    1.3408   -4.2674 H       1  UNL1111     0.0235
      4 H          -5.2886    0.7827   -2.9052 H       1  UNL1111     0.0235
      5 H          -5.4384    0.0163   -4.4920 H       1  UNL1111     0.0235
      6 C          -2.5396    0.2033   -2.6109 C.3     1  UNL1111    -0.0587
      7 H          -2.1341    1.0326   -3.2014 H       1  UNL1111     0.0235
      8 H          -1.7039   -0.4576   -2.3576 H       1  UNL1111     0.0235
      9 H          -2.9378    0.6268   -1.6815 H       1  UNL1111     0.0235
     10 C          -4.2140   -1.7656   -2.7013 C.ar    1  UNL1111    -0.0447
     11 H          -3.1473   -0.9036   -4.3231 H       1  UNL1111     0.0343
     12 C          -5.1322   -2.5724   -3.4011 C.ar    1  UNL1111    -0.0565
     13 C          -5.7524   -3.6654   -2.7904 C.ar    1  UNL1111    -0.0345
     14 C          -5.4396   -3.9783   -1.4682 C.ar    1  UNL1111     0.1139
     15 C          -4.5095   -3.2143   -0.7605 C.ar    1  UNL1111    -0.0345
     16 C          -3.8990   -2.1188   -1.3791 C.ar    1  UNL1111    -0.0565
     17 S          -6.2979   -5.2970   -0.6316 S.O2    1  UNL1111     0.1155
     18 O          -7.3150   -5.7817   -1.5396 O.2     1  UNL1111    -0.1451
     19 O          -6.6300   -4.7840    0.6822 O.2     1  UNL1111    -0.1451
     20 N          -5.0799   -6.4351   -0.5314 N.2     1  UNL1111     0.0012
     21 S          -5.2747   -7.6352    0.6304 S.O2    1  UNL1111     0.1844
     22 C          -4.2531   -8.9350   -0.1261 C.3     1  UNL1111     0.5434
     23 F          -2.9611   -8.5320   -0.3061 F       1  UNL1111    -0.1489
     24 F          -4.7083   -9.2968   -1.3605 F       1  UNL1111    -0.1489
     25 F          -4.2036  -10.0736    0.6207 F       1  UNL1111    -0.1489
     26 O          -4.6360   -7.1717    1.8526 O.2     1  UNL1111    -0.1417
     27 O          -6.6595   -8.0733    0.6536 O.2     1  UNL1111    -0.1417
     28 H          -4.2724   -3.4411    0.2774 H       1  UNL111      0.0637
     29 H          -3.1910   -1.5365   -0.7940 H       1  UNL111      0.0621
     30 H          -5.3934   -2.3357   -4.4317 H       1  UNL111      0.0621
     31 H          -6.4893   -4.2399   -3.3477 H       1  UNL111      0.0637
@<TRIPOS>BOND
     1     1     2    1
     2     1     3    1
     3     1     4    1
     4     1     5    1
     5     2     6    1
     6     6     7    1
     7     6     8    1
     8     6     9    1
     9     2    10    1
    10     2    11    1
    11    10    12   ar
    12    12    13   ar
    13    13    14   ar
    14    14    15   ar
    15    15    16   ar
    16    16    10   ar
    17    14    17    1
    18    17    18    2
    19    17    19    2
    20    17    20    1
    21    20    21    2
    22    21    22    1
    23    22    23    1
    24    22    24    1
    25    22    25    1
    26    21    26    2
    27    21    27    2
    28    15    28    1
    29    16    29    1
    30    12    30    1
    31    13    31    1
