@<TRIPOS>MOLECULE
TFS
   15    14     1     0     0
SMALL
No Charge or Current Charge


@<TRIPOS>ATOM
      1 C           -8.0510    -0.8320     0.4710 c3         1 TFS       0.000000
      2 S           -7.2280     1.0010    -0.1230 s6         1 TFS       0.000000
      3 F           -7.2030    -1.6230     1.2040 f          1 TFS       0.000000
      4 F1          -8.4430    -1.6400    -0.5670 f          1 TFS       0.000000
      5 F2          -9.1700    -0.7170     1.2530 f          1 TFS       0.000000
      6 N           -6.1160     0.4880    -0.8940 ne         1 TFS       0.000000
      7 S1          -5.0040    -0.0260    -1.6660 sy         1 TFS       0.000000
      8 C1          -4.1830     1.8070    -2.2630 c3         1 TFS       0.000000
      9 F3          -5.0320     2.5950    -2.9990 f          1 TFS       0.000000
     10 F4          -3.0630     1.6920    -3.0430 f          1 TFS       0.000000
     11 F5          -3.7950     2.6190    -1.2270 f          1 TFS       0.000000
     12 O           -8.3010     1.5520    -0.8080 o          1 TFS       0.000000
     13 O1          -3.9300    -0.5740    -0.9810 o          1 TFS       0.000000
     14 O2          -5.2720    -0.5990    -2.9000 o          1 TFS       0.000000
     15 O3          -6.9600     1.5710     1.1130 o          1 TFS       0.000000
@<TRIPOS>BOND
     1     1     2 1   
     2     1     3 1   
     3     1     4 1   
     4     1     5 1   
     5     2     6 2   
     6     2    12 1   
     7     2    15 2   
     8     6     7 1   
     9     7     8 1   
    10     7    13 2   
    11     7    14 2   
    12     8     9 1   
    13     8    10 1   
    14     8    11 1   
@<TRIPOS>SUBSTRUCTURE
     1 TFS         1 TEMP              0 ****  ****    0 ROOT
