@<TRIPOS>MOLECULE
UNL
   39    38     1     0     0
SMALL
No Charge or Current Charge


@<TRIPOS>ATOM
      1 O            1.8920     0.3230     3.2830 oh         1 UNL       0.000000
      2 C            2.0980     1.2940     4.3140 c3         1 UNL       0.000000
      3 C1           3.3080     0.9000     5.1850 c3         1 UNL       0.000000
      4 H            1.2010     1.3470     4.9370 h1         1 UNL       0.000000
      5 H1           2.2690     2.2740     3.8600 h1         1 UNL       0.000000
      6 C2           3.5420     1.9310     6.3070 c3         1 UNL       0.000000
      7 H2           4.2020     0.8320     4.5610 hc         1 UNL       0.000000
      8 H3           3.1370    -0.0850     5.6270 hc         1 UNL       0.000000
      9 O1           4.7310     1.5570     7.0460 os         1 UNL       0.000000
     10 H4           2.6870     1.9530     6.9880 h1         1 UNL       0.000000
     11 H5           3.6920     2.9250     5.8750 h1         1 UNL       0.000000
     12 C3           5.1550     2.3550     8.0490 c          1 UNL       0.000000
     13 O2           6.3290     1.9020     8.5380 os         1 UNL       0.000000
     14 C4           7.0390     2.7020     9.5180 c3         1 UNL       0.000000
     15 C5           8.4090     2.0470     9.7910 c3         1 UNL       0.000000
     16 H6           6.4550     2.7710    10.4410 h1         1 UNL       0.000000
     17 H7           7.1840     3.7030     9.1030 h1         1 UNL       0.000000
     18 C6           9.4010     3.0470    10.4190 c3         1 UNL       0.000000
     19 O3           9.0530     3.3400    11.8000 os         1 UNL       0.000000
     20 C7           9.6460     2.6600    12.8060 c          1 UNL       0.000000
     21 O4           9.3430     3.2300    13.9920 os         1 UNL       0.000000
     22 C8          10.0900     2.8310    15.1700 c3         1 UNL       0.000000
     23 C9           9.5740     3.6170    16.3930 c3         1 UNL       0.000000
     24 H8          11.1470     3.0570    15.0030 h1         1 UNL       0.000000
     25 H9           9.9670     1.7560    15.3320 h1         1 UNL       0.000000
     26 O5           4.6190     3.3970     8.3800 o          1 UNL       0.000000
     27 O6          10.4770     1.7830    12.6580 o          1 UNL       0.000000
     28 H10          2.6290     0.3680     2.6430 ho         1 UNL       0.000000
     29 H11          8.8280     1.6980     8.8440 hc         1 UNL       0.000000
     30 H12          8.2860     1.1720    10.4340 hc         1 UNL       0.000000
     31 H13         10.4190     2.6510    10.3670 h1         1 UNL       0.000000
     32 H14          9.3750     3.9830     9.8560 h1         1 UNL       0.000000
     33 C10         10.4490     3.3480    17.6360 c3         1 UNL       0.000000
     34 H15          8.5400     3.3300    16.5990 hc         1 UNL       0.000000
     35 H16          9.5810     4.6870    16.1670 hc         1 UNL       0.000000
     36 O7           9.9530     4.0910    18.7540 oh         1 UNL       0.000000
     37 H17         11.4790     3.6520    17.4310 h1         1 UNL       0.000000
     38 H18         10.4350     2.2810    17.8740 h1         1 UNL       0.000000
     39 H19         10.5390     3.9490    19.5240 ho         1 UNL       0.000000
@<TRIPOS>BOND
     1     1     2 1   
     2     1    28 1   
     3     2     3 1   
     4     2     4 1   
     5     2     5 1   
     6     3     6 1   
     7     3     7 1   
     8     3     8 1   
     9     6     9 1   
    10     6    10 1   
    11     6    11 1   
    12     9    12 1   
    13    12    13 1   
    14    12    26 2   
    15    13    14 1   
    16    14    15 1   
    17    14    16 1   
    18    14    17 1   
    19    15    18 1   
    20    15    29 1   
    21    15    30 1   
    22    18    19 1   
    23    18    31 1   
    24    18    32 1   
    25    19    20 1   
    26    20    21 1   
    27    20    27 2   
    28    21    22 1   
    29    22    23 1   
    30    22    24 1   
    31    22    25 1   
    32    23    33 1   
    33    23    34 1   
    34    23    35 1   
    35    33    36 1   
    36    33    37 1   
    37    33    38 1   
    38    36    39 1   
@<TRIPOS>SUBSTRUCTURE
     1 UNL         1 TEMP              0 ****  ****    0 ROOT
