@<TRIPOS>MOLECULE
*****
 48 47 0 0 0
SMALL
GASTEIGER

@<TRIPOS>ATOM
      1 C          10.4761   -0.1291   -0.0000 C.3     1  UNL1       -0.0622
      2 C           9.0984    0.5570    0.0000 C.3     1  UNL1       -0.0214
      3 C           7.9627   -0.4817    0.0000 C.3     1  UNL1        0.0922
      4 O           6.6962    0.2191    0.0000 O.3     1  UNL1       -0.4646
      5 C           5.5568   -0.5071   -0.0000 C.2     1  UNL1        0.3071
      6 O           5.5168   -1.7234   -0.0000 O.2     1  UNL1       -0.2509
      7 C           4.3304    0.3856   -0.0000 C.3     1  UNL1        0.0449
      8 C           3.0056   -0.4105   -0.0000 C.3     1  UNL1       -0.0429
      9 C           1.7846    0.5337   -0.0000 C.3     1  UNL1       -0.0495
     10 C           0.4593   -0.2567   -0.0000 C.3     1  UNL1       -0.0185
     11 C          -0.7453    0.7013    0.0000 C.3     1  UNL1        0.0925
     12 O          -1.9667   -0.0764    0.0000 O.3     1  UNL1       -0.4646
     13 C          -3.1443    0.5870    0.0000 C.2     1  UNL1        0.3071
     14 O          -3.2465    1.7999    0.0000 O.2     1  UNL1       -0.2509
     15 C          -4.3266   -0.3644    0.0000 C.3     1  UNL1        0.0449
     16 C          -5.6830    0.3767   -0.0000 C.3     1  UNL1       -0.0429
     17 C          -6.8745   -0.6045   -0.0000 C.3     1  UNL1       -0.0505
     18 C          -8.2155    0.1591    0.0000 C.3     1  UNL1       -0.0297
     19 C          -9.4120   -0.8104    0.0000 C.3     1  UNL1        0.0442
     20 O         -10.6267   -0.0601   -0.0000 O.3     1  UNL1       -0.3950
     21 H          11.2714    0.6196   -0.0000 H       1  UNL1        0.0231
     22 H          10.5940   -0.7558    0.8871 H       1  UNL1        0.0231
     23 H          10.5940   -0.7558   -0.8871 H       1  UNL1        0.0231
     24 H           9.0102    1.1961    0.8819 H       1  UNL1        0.0295
     25 H           9.0102    1.1961   -0.8819 H       1  UNL1        0.0295
     26 H           8.0244   -1.1097   -0.8938 H       1  UNL1        0.0697
     27 H           8.0244   -1.1097    0.8938 H       1  UNL1        0.0697
     28 H           4.3708    1.0337    0.8789 H       1  UNL1        0.0377
     29 H           4.3708    1.0337   -0.8789 H       1  UNL1        0.0377
     30 H           2.9688   -1.0545   -0.8825 H       1  UNL1        0.0270
     31 H           2.9688   -1.0545    0.8825 H       1  UNL1        0.0270
     32 H           1.8225    1.1783    0.8820 H       1  UNL1        0.0266
     33 H           1.8225    1.1783   -0.8820 H       1  UNL1        0.0266
     34 H           0.4117   -0.8996   -0.8825 H       1  UNL1        0.0298
     35 H           0.4117   -0.8996    0.8825 H       1  UNL1        0.0298
     36 H          -0.7247    1.3326    0.8934 H       1  UNL1        0.0697
     37 H          -0.7247    1.3326   -0.8934 H       1  UNL1        0.0697
     38 H          -4.2577   -1.0095   -0.8793 H       1  UNL1        0.0377
     39 H          -4.2577   -1.0095    0.8793 H       1  UNL1        0.0377
     40 H          -5.7429    1.0197    0.8820 H       1  UNL1        0.0270
     41 H          -5.7429    1.0197   -0.8820 H       1  UNL1        0.0270
     42 H          -6.8201   -1.2471   -0.8826 H       1  UNL1        0.0266
     43 H          -6.8201   -1.2471    0.8826 H       1  UNL1        0.0266
     44 H          -8.2709    0.8027    0.8819 H       1  UNL1        0.0287
     45 H          -8.2709    0.8027   -0.8819 H       1  UNL1        0.0287
     46 H          -9.3764   -1.4442   -0.8906 H       1  UNL1        0.0557
     47 H          -9.3764   -1.4442    0.8906 H       1  UNL1        0.0557
     48 H         -11.3768   -0.6825   -0.0000 H       1  UNL1        0.2094
@<TRIPOS>BOND
     1     1     2    1
     2     1    21    1
     3     1    22    1
     4     1    23    1
     5     2     3    1
     6     2    24    1
     7     2    25    1
     8     3     4    1
     9     3    26    1
    10     3    27    1
    11     4     5    1
    12     5     6    2
    13     5     7    1
    14     7     8    1
    15     7    28    1
    16     7    29    1
    17     8     9    1
    18     8    30    1
    19     8    31    1
    20     9    10    1
    21     9    32    1
    22     9    33    1
    23    10    11    1
    24    10    34    1
    25    10    35    1
    26    11    12    1
    27    11    36    1
    28    11    37    1
    29    12    13    1
    30    13    14    2
    31    13    15    1
    32    15    16    1
    33    15    38    1
    34    15    39    1
    35    16    17    1
    36    16    40    1
    37    16    41    1
    38    17    18    1
    39    17    42    1
    40    17    43    1
    41    18    19    1
    42    18    44    1
    43    18    45    1
    44    19    20    1
    45    19    46    1
    46    19    47    1
    47    20    48    1
