@<TRIPOS>MOLECULE
*****
   48    47     1     0     0
SMALL
bcc


@<TRIPOS>ATOM
      1 C           10.4760    -0.1290    -0.0000 c3         1 UNL      -0.093100
      2 C1           9.0980     0.5570     0.0000 c3         1 UNL      -0.086400
      3 C2           7.9630    -0.4820     0.0000 c3         1 UNL       0.139400
      4 O            6.6960     0.2190     0.0000 os         1 UNL      -0.446900
      5 C3           5.5570    -0.5070    -0.0000 c          1 UNL       0.631100
      6 O1           5.5170    -1.7230    -0.0000 o          1 UNL      -0.542000
      7 C4           4.3300     0.3860    -0.0000 c3         1 UNL      -0.128400
      8 C5           3.0060    -0.4100    -0.0000 c3         1 UNL      -0.078400
      9 C6           1.7850     0.5340    -0.0000 c3         1 UNL      -0.078400
     10 C7           0.4590    -0.2570    -0.0000 c3         1 UNL      -0.085400
     11 C8          -0.7450     0.7010     0.0000 c3         1 UNL       0.140400
     12 O2          -1.9670    -0.0760     0.0000 os         1 UNL      -0.446900
     13 C9          -3.1440     0.5870     0.0000 c          1 UNL       0.631100
     14 O3          -3.2470     1.8000     0.0000 o          1 UNL      -0.541000
     15 C10         -4.3270    -0.3640     0.0000 c3         1 UNL      -0.127400
     16 C11         -5.6830     0.3770    -0.0000 c3         1 UNL      -0.078400
     17 C12         -6.8750    -0.6050    -0.0000 c3         1 UNL      -0.078400
     18 C13         -8.2160     0.1590     0.0000 c3         1 UNL      -0.084400
     19 C14         -9.4120    -0.8100     0.0000 c3         1 UNL       0.132400
     20 O4         -10.6270    -0.0600    -0.0000 oh         1 UNL      -0.600800
     21 H           11.2710     0.6200    -0.0000 hc         1 UNL       0.037700
     22 H1          10.5940    -0.7560     0.8870 hc         1 UNL       0.037700
     23 H2          10.5940    -0.7560    -0.8870 hc         1 UNL       0.037700
     24 H3           9.0100     1.1960     0.8820 hc         1 UNL       0.053700
     25 H4           9.0100     1.1960    -0.8820 hc         1 UNL       0.053700
     26 H5           8.0240    -1.1100    -0.8940 h1         1 UNL       0.051700
     27 H6           8.0240    -1.1100     0.8940 h1         1 UNL       0.051700
     28 H7           4.3710     1.0340     0.8790 hc         1 UNL       0.079700
     29 H8           4.3710     1.0340    -0.8790 hc         1 UNL       0.079700
     30 H9           2.9690    -1.0540    -0.8820 hc         1 UNL       0.059700
     31 H10          2.9690    -1.0540     0.8820 hc         1 UNL       0.059700
     32 H11          1.8230     1.1780     0.8820 hc         1 UNL       0.043700
     33 H12          1.8230     1.1780    -0.8820 hc         1 UNL       0.043700
     34 H13          0.4120    -0.9000    -0.8820 hc         1 UNL       0.057700
     35 H14          0.4120    -0.9000     0.8820 hc         1 UNL       0.057700
     36 H15         -0.7250     1.3330     0.8930 h1         1 UNL       0.051700
     37 H16         -0.7250     1.3330    -0.8930 h1         1 UNL       0.051700
     38 H17         -4.2580    -1.0100    -0.8790 hc         1 UNL       0.078700
     39 H18         -4.2580    -1.0100     0.8790 hc         1 UNL       0.078700
     40 H19         -5.7430     1.0200     0.8820 hc         1 UNL       0.060700
     41 H20         -5.7430     1.0200    -0.8820 hc         1 UNL       0.060700
     42 H21         -6.8200    -1.2470    -0.8830 hc         1 UNL       0.039700
     43 H22         -6.8200    -1.2470     0.8830 hc         1 UNL       0.039700
     44 H23         -8.2710     0.8030     0.8820 hc         1 UNL       0.058700
     45 H24         -8.2710     0.8030    -0.8820 hc         1 UNL       0.058700
     46 H25         -9.3760    -1.4440    -0.8910 h1         1 UNL       0.019700
     47 H26         -9.3760    -1.4440     0.8910 h1         1 UNL       0.019700
     48 H27        -11.3770    -0.6820    -0.0000 ho         1 UNL       0.399000
@<TRIPOS>BOND
     1     1     2 1   
     2     1    21 1   
     3     1    22 1   
     4     1    23 1   
     5     2     3 1   
     6     2    24 1   
     7     2    25 1   
     8     3     4 1   
     9     3    26 1   
    10     3    27 1   
    11     4     5 1   
    12     5     6 2   
    13     5     7 1   
    14     7     8 1   
    15     7    28 1   
    16     7    29 1   
    17     8     9 1   
    18     8    30 1   
    19     8    31 1   
    20     9    10 1   
    21     9    32 1   
    22     9    33 1   
    23    10    11 1   
    24    10    34 1   
    25    10    35 1   
    26    11    12 1   
    27    11    36 1   
    28    11    37 1   
    29    12    13 1   
    30    13    14 2   
    31    13    15 1   
    32    15    16 1   
    33    15    38 1   
    34    15    39 1   
    35    16    17 1   
    36    16    40 1   
    37    16    41 1   
    38    17    18 1   
    39    17    42 1   
    40    17    43 1   
    41    18    19 1   
    42    18    44 1   
    43    18    45 1   
    44    19    20 1   
    45    19    46 1   
    46    19    47 1   
    47    20    48 1   
@<TRIPOS>SUBSTRUCTURE
     1 UNL         1 TEMP              0 ****  ****    0 ROOT
