@<TRIPOS>MOLECULE
*****
   72    71     1     0     0
SMALL
bcc


@<TRIPOS>ATOM
      1 C            0.8350     0.0180     0.0240 c3         1 UNL       0.118700
      2 O            2.2560     0.0120     0.0080 os         1 UNL      -0.424600
      3 C1           2.7590    -0.3660    -1.2730 c3         1 UNL       0.124400
      4 C2           4.2820    -0.3580    -1.2420 c3         1 UNL       0.130400
      5 O1           4.7760    -0.7360    -2.5260 os         1 UNL      -0.430600
      6 C3           6.2020    -0.7430    -2.5500 c3         1 UNL       0.130400
      7 C4           6.6770    -1.1510    -3.9370 c3         1 UNL       0.129400
      8 O2           8.1030    -1.1550    -3.9580 os         1 UNL      -0.429600
      9 C5           8.5990    -1.5320    -5.2400 c3         1 UNL       0.129900
     10 C6          10.1200    -1.5200    -5.2100 c3         1 UNL       0.130400
     11 O3          10.6100    -1.8940    -6.4960 os         1 UNL      -0.430600
     12 C7          12.0360    -1.8860    -6.5280 c3         1 UNL       0.130400
     13 C8          12.5000    -2.2810    -7.9230 c3         1 UNL       0.128400
     14 O4          13.9200    -2.2110    -7.9770 os         1 UNL      -0.429600
     15 C9          14.4230    -2.6790    -9.2320 c3         1 UNL       0.128400
     16 C10         15.9470    -2.6620    -9.1910 c3         1 UNL       0.128400
     17 O5          16.3970    -3.6580    -8.2670 os         1 UNL      -0.429600
     18 C11         17.8120    -3.6390    -8.1230 c3         1 UNL       0.128400
     19 C12         18.2150    -4.6350    -7.0440 c3         1 UNL       0.130400
     20 O6          19.6380    -4.6600    -6.9460 os         1 UNL      -0.430600
     21 C13         20.0710    -5.5850    -5.9530 c3         1 UNL       0.130400
     22 C14         21.5920    -5.5760    -5.9020 c3         1 UNL       0.129900
     23 O7          22.0320    -6.5030    -4.9120 os         1 UNL      -0.429600
     24 C15         23.4550    -6.5300    -4.8260 c3         1 UNL       0.129400
     25 C16         23.8700    -7.5310    -3.7570 c3         1 UNL       0.130400
     26 O8          25.2920    -7.5590    -3.6680 os         1 UNL      -0.430600
     27 C17         25.7310    -8.4850    -2.6760 c3         1 UNL       0.130400
     28 C18         27.2530    -8.4750    -2.6230 c3         1 UNL       0.124400
     29 O9          27.7000    -9.4010    -1.6340 os         1 UNL      -0.424600
     30 C19         29.1180    -9.4230    -1.5500 c3         1 UNL       0.118700
     31 H            0.5040     0.3120     1.0230 h1         1 UNL       0.034367
     32 H1           0.4460    -0.9820    -0.1940 h1         1 UNL       0.034367
     33 H2           0.4470     0.7400    -0.7010 h1         1 UNL       0.034367
     34 H3           2.4000     0.3310    -2.0400 h1         1 UNL       0.040200
     35 H4           2.3990    -1.3680    -1.5380 h1         1 UNL       0.040200
     36 H5           4.6430    -1.0560    -0.4780 h1         1 UNL       0.042700
     37 H6           4.6440     0.6440    -0.9790 h1         1 UNL       0.042700
     38 H7           6.5890    -1.4470    -1.8030 h1         1 UNL       0.042700
     39 H8           6.5880     0.2530    -2.3030 h1         1 UNL       0.042700
     40 H9           6.2910    -0.4480    -4.6850 h1         1 UNL       0.042200
     41 H10          6.2930    -2.1480    -4.1840 h1         1 UNL       0.042200
     42 H11          8.2370    -0.8340    -6.0050 h1         1 UNL       0.042200
     43 H12          8.2400    -2.5340    -5.5050 h1         1 UNL       0.042200
     44 H13         10.4850    -2.2190    -4.4480 h1         1 UNL       0.042700
     45 H14         10.4790    -0.5180    -4.9460 h1         1 UNL       0.042700
     46 H15         12.4350    -2.5920    -5.7890 h1         1 UNL       0.042200
     47 H16         12.4150    -0.8890    -6.2760 h1         1 UNL       0.042200
     48 H17         12.0650    -1.6070    -8.6710 h1         1 UNL       0.041200
     49 H18         12.1560    -3.2970    -8.1500 h1         1 UNL       0.041200
     50 H19         14.0640    -2.0170   -10.0280 h1         1 UNL       0.045200
     51 H20         14.0640    -3.6990    -9.4090 h1         1 UNL       0.045200
     52 H21         16.3020    -1.6790    -8.8640 h1         1 UNL       0.045200
     53 H22         16.3500    -2.8910   -10.1830 h1         1 UNL       0.045200
     54 H23         18.1570    -2.6360    -7.8440 h1         1 UNL       0.041200
     55 H24         18.2860    -3.9040    -9.0750 h1         1 UNL       0.041200
     56 H25         17.8360    -5.6330    -7.2950 h1         1 UNL       0.042200
     57 H26         17.7760    -4.3410    -6.0830 h1         1 UNL       0.042200
     58 H27         19.7120    -6.5930    -6.1920 h1         1 UNL       0.042700
     59 H28         19.6630    -5.3070    -4.9730 h1         1 UNL       0.042700
     60 H29         21.9500    -4.5680    -5.6610 h1         1 UNL       0.042200
     61 H30         21.9980    -5.8500    -6.8830 h1         1 UNL       0.042200
     62 H31         23.8370    -5.5340    -4.5730 h1         1 UNL       0.042200
     63 H32         23.8860    -6.8180    -5.7930 h1         1 UNL       0.042200
     64 H33         23.4880    -8.5270    -4.0130 h1         1 UNL       0.042700
     65 H34         23.4360    -7.2440    -2.7920 h1         1 UNL       0.042700
     66 H35         25.3730    -9.4930    -2.9180 h1         1 UNL       0.042700
     67 H36         25.3220    -8.2100    -1.6960 h1         1 UNL       0.042700
     68 H37         27.6080    -7.4660    -2.3830 h1         1 UNL       0.040200
     69 H38         27.6590    -8.7470    -3.6050 h1         1 UNL       0.040200
     70 H39         29.4070   -10.1450    -0.7820 h1         1 UNL       0.034367
     71 H40         29.5010    -8.4380    -1.2670 h1         1 UNL       0.034367
     72 H41         29.5530    -9.7360    -2.5050 h1         1 UNL       0.034367
@<TRIPOS>BOND
     1     1     2 1   
     2     1    31 1   
     3     1    32 1   
     4     1    33 1   
     5     2     3 1   
     6     3     4 1   
     7     3    34 1   
     8     3    35 1   
     9     4     5 1   
    10     4    36 1   
    11     4    37 1   
    12     5     6 1   
    13     6     7 1   
    14     6    38 1   
    15     6    39 1   
    16     7     8 1   
    17     7    40 1   
    18     7    41 1   
    19     8     9 1   
    20     9    10 1   
    21     9    42 1   
    22     9    43 1   
    23    10    11 1   
    24    10    44 1   
    25    10    45 1   
    26    11    12 1   
    27    12    13 1   
    28    12    46 1   
    29    12    47 1   
    30    13    14 1   
    31    13    48 1   
    32    13    49 1   
    33    14    15 1   
    34    15    16 1   
    35    15    50 1   
    36    15    51 1   
    37    16    17 1   
    38    16    52 1   
    39    16    53 1   
    40    17    18 1   
    41    18    19 1   
    42    18    54 1   
    43    18    55 1   
    44    19    20 1   
    45    19    56 1   
    46    19    57 1   
    47    20    21 1   
    48    21    22 1   
    49    21    58 1   
    50    21    59 1   
    51    22    23 1   
    52    22    60 1   
    53    22    61 1   
    54    23    24 1   
    55    24    25 1   
    56    24    62 1   
    57    24    63 1   
    58    25    26 1   
    59    25    64 1   
    60    25    65 1   
    61    26    27 1   
    62    27    28 1   
    63    27    66 1   
    64    27    67 1   
    65    28    29 1   
    66    28    68 1   
    67    28    69 1   
    68    29    30 1   
    69    30    70 1   
    70    30    71 1   
    71    30    72 1   
@<TRIPOS>SUBSTRUCTURE
     1 UNL         1 TEMP              0 ****  ****    0 ROOT
