@<TRIPOS>MOLECULE
*****
 43 42 0 0 0
SMALL
GASTEIGER

@<TRIPOS>ATOM
      1 C           0.8317    0.2829   -0.1288 C.3     1  UNL1       -0.0416
      2 C           0.2924    0.4587    1.2741 C.3     1  UNL1        0.0449
      3 O           1.0395    1.2276    2.1812 O.3     1  UNL1       -0.3778
      4 C           2.4297    0.8135    2.1090 C.3     1  UNL1        0.0710
      5 C           2.8535   -0.7517    1.9793 C.3     1  UNL1        0.0711
      6 O           2.2373   -1.8124    1.2136 O.3     1  UNL1       -0.3752
      7 C           0.8749   -2.2693    1.6485 C.3     1  UNL1        0.0711
      8 C           0.1027   -1.7740    3.1471 C.3     1  UNL1        0.0711
      9 O           0.8119   -1.0547    4.2468 O.3     1  UNL1       -0.3752
     10 C           2.2568   -1.0824    4.6222 C.3     1  UNL1        0.0711
     11 C           3.3182   -2.4487    4.3160 C.3     1  UNL1        0.0711
     12 O           2.8403   -3.8037    3.8805 O.3     1  UNL1       -0.3752
     13 C           1.4143   -4.0423    3.9118 C.3     1  UNL1        0.0711
     14 C           0.4109   -4.1583    5.1869 C.3     1  UNL1        0.0710
     15 O           0.5467   -3.2985    6.3495 O.3     1  UNL1       -0.3778
     16 C           1.9114   -3.1570    6.6486 C.3     1  UNL1        0.0449
     17 C           2.7713   -4.4019    6.6742 C.3     1  UNL1       -0.0416
     18 H           0.6180    1.1944   -0.6693 H       1  UNL1        0.0252
     19 H           0.4160   -0.5914   -0.6435 H       1  UNL1        0.0252
     20 H           1.9126    0.1116   -0.1622 H       1  UNL1        0.0252
     21 H          -0.7658    0.2356    1.4502 H       1  UNL1        0.0557
     22 H           0.6555   -0.4038    1.7669 H       1  UNL1        0.0557
     23 H           2.8293    1.3154    1.2379 H       1  UNL1        0.0583
     24 H           2.8892    1.2892    2.9870 H       1  UNL1        0.0583
     25 H           3.9175   -0.8859    2.2328 H       1  UNL1        0.0583
     26 H           2.3838   -1.1941    2.8084 H       1  UNL1        0.0583
     27 H           0.2043   -1.8201    0.9279 H       1  UNL1        0.0583
     28 H           0.6501   -3.2650    1.2368 H       1  UNL1        0.0583
     29 H          -0.9313   -1.3974    3.0083 H       1  UNL1        0.0583
     30 H          -0.3263   -2.6767    3.5725 H       1  UNL1        0.0583
     31 H           2.7316   -0.2262    4.1515 H       1  UNL1        0.0583
     32 H           2.4376   -0.5927    5.6008 H       1  UNL1        0.0583
     33 H           4.3374   -2.2597    3.9458 H       1  UNL1        0.0583
     34 H           3.7105   -2.6152    5.3106 H       1  UNL1        0.0583
     35 H           1.3262   -3.0335    3.6318 H       1  UNL1        0.0583
     36 H           0.9842   -4.5517    3.0343 H       1  UNL1        0.0583
     37 H          -0.6405   -4.0329    4.8914 H       1  UNL1        0.0583
     38 H           0.5096   -5.1662    5.5674 H       1  UNL1        0.0583
     39 H           2.0510   -2.8049    5.6611 H       1  UNL1        0.0557
     40 H           2.2997   -2.2535    7.1320 H       1  UNL1        0.0557
     41 H           2.5489   -5.1023    5.8626 H       1  UNL1        0.0252
     42 H           3.8395   -4.1901    6.5467 H       1  UNL1        0.0252
     43 H           2.5803   -4.9023    7.6132 H       1  UNL1        0.0252
@<TRIPOS>BOND
     1     1     2    1
     2     2     3    1
     3     3     4    1
     4     4     5    1
     5     5     6    1
     6     6     7    1
     7     7     8    1
     8     8     9    1
     9     9    10    1
    10    10    11    1
    11    11    12    1
    12    12    13    1
    13    13    14    1
    14    14    15    1
    15    15    16    1
    16    16    17    1
    17     1    18    1
    18     1    19    1
    19     1    20    1
    20     2    21    1
    21     2    22    1
    22     4    23    1
    23     4    24    1
    24     5    25    1
    25     5    26    1
    26     7    27    1
    27     7    28    1
    28     8    29    1
    29     8    30    1
    30    10    31    1
    31    10    32    1
    32    11    33    1
    33    11    34    1
    34    13    35    1
    35    13    36    1
    36    14    37    1
    37    14    38    1
    38    16    39    1
    39    16    40    1
    40    17    41    1
    41    17    42    1
    42    17    43    1
