@<TRIPOS>MOLECULE
*****
   43    42     1     0     0
SMALL
bcc


@<TRIPOS>ATOM
      1 C            0.8320     0.2830    -0.1290 c3         1 UNL      -0.127600
      2 C1           0.2920     0.4590     1.2740 c3         1 UNL       0.120400
      3 O            1.0400     1.2280     2.1810 os         1 UNL      -0.418600
      4 C2           2.4300     0.8140     2.1090 c3         1 UNL       0.107900
      5 C3           2.8530    -0.7520     1.9790 c3         1 UNL       0.092900
      6 O1           2.2370    -1.8120     1.2140 os         1 UNL      -0.419600
      7 C4           0.8750    -2.2690     1.6490 c3         1 UNL       0.099400
      8 C5           0.1030    -1.7740     3.1470 c3         1 UNL       0.087900
      9 O2           0.8120    -1.0550     4.2470 os         1 UNL      -0.429600
     10 C6           2.2570    -1.0820     4.6220 c3         1 UNL       0.087900
     11 C7           3.3180    -2.4490     4.3160 c3         1 UNL       0.099400
     12 O3           2.8400    -3.8040     3.8810 os         1 UNL      -0.419600
     13 C8           1.4140    -4.0420     3.9120 c3         1 UNL       0.092900
     14 C9           0.4110    -4.1580     5.1870 c3         1 UNL       0.107900
     15 O4           0.5470    -3.2990     6.3490 os         1 UNL      -0.418600
     16 C10          1.9110    -3.1570     6.6490 c3         1 UNL       0.120400
     17 C11          2.7710    -4.4020     6.6740 c3         1 UNL      -0.127600
     18 H            0.6180     1.1940    -0.6690 hc         1 UNL       0.041367
     19 H1           0.4160    -0.5910    -0.6430 hc         1 UNL       0.041367
     20 H2           1.9130     0.1120    -0.1620 hc         1 UNL       0.041367
     21 H3          -0.7660     0.2360     1.4500 h1         1 UNL       0.051700
     22 H4           0.6550    -0.4040     1.7670 h1         1 UNL       0.051700
     23 H5           2.8290     1.3150     1.2380 h1         1 UNL       0.060450
     24 H6           2.8890     1.2890     2.9870 h1         1 UNL       0.060450
     25 H7           3.9170    -0.8860     2.2330 h1         1 UNL       0.042950
     26 H8           2.3840    -1.1940     2.8080 h1         1 UNL       0.042950
     27 H9           0.2040    -1.8200     0.9280 h1         1 UNL       0.054700
     28 H10          0.6500    -3.2650     1.2370 h1         1 UNL       0.054700
     29 H11         -0.9310    -1.3970     3.0080 h1         1 UNL       0.064200
     30 H12         -0.3260    -2.6770     3.5720 h1         1 UNL       0.064200
     31 H13          2.7320    -0.2260     4.1520 h1         1 UNL       0.064200
     32 H14          2.4380    -0.5930     5.6010 h1         1 UNL       0.064200
     33 H15          4.3370    -2.2600     3.9460 h1         1 UNL       0.054700
     34 H16          3.7110    -2.6150     5.3110 h1         1 UNL       0.054700
     35 H17          1.3260    -3.0340     3.6320 h1         1 UNL       0.042950
     36 H18          0.9840    -4.5520     3.0340 h1         1 UNL       0.042950
     37 H19         -0.6400    -4.0330     4.8910 h1         1 UNL       0.060450
     38 H20          0.5100    -5.1660     5.5670 h1         1 UNL       0.060450
     39 H21          2.0510    -2.8050     5.6610 h1         1 UNL       0.051700
     40 H22          2.3000    -2.2530     7.1320 h1         1 UNL       0.051700
     41 H23          2.5490    -5.1020     5.8630 hc         1 UNL       0.041367
     42 H24          3.8400    -4.1900     6.5470 hc         1 UNL       0.041367
     43 H25          2.5800    -4.9020     7.6130 hc         1 UNL       0.041367
@<TRIPOS>BOND
     1     1     2 1   
     2     2     3 1   
     3     3     4 1   
     4     4     5 1   
     5     5     6 1   
     6     6     7 1   
     7     7     8 1   
     8     8     9 1   
     9     9    10 1   
    10    10    11 1   
    11    11    12 1   
    12    12    13 1   
    13    13    14 1   
    14    14    15 1   
    15    15    16 1   
    16    16    17 1   
    17     1    18 1   
    18     1    19 1   
    19     1    20 1   
    20     2    21 1   
    21     2    22 1   
    22     4    23 1   
    23     4    24 1   
    24     5    25 1   
    25     5    26 1   
    26     7    27 1   
    27     7    28 1   
    28     8    29 1   
    29     8    30 1   
    30    10    31 1   
    31    10    32 1   
    32    11    33 1   
    33    11    34 1   
    34    13    35 1   
    35    13    36 1   
    36    14    37 1   
    37    14    38 1   
    38    16    39 1   
    39    16    40 1   
    40    17    41 1   
    41    17    42 1   
    42    17    43 1   
@<TRIPOS>SUBSTRUCTURE
     1 UNL         1 TEMP              0 ****  ****    0 ROOT
