@<TRIPOS>MOLECULE
MOL
   49    49     1     0     0
SMALL
No Charge or Current Charge


@<TRIPOS>ATOM
      1 C            5.2330    -1.4070     2.1250 c          1 MOL       0.000000
      2 N            4.1540    -2.1090     2.5930 n          1 MOL       0.000000
      3 O            6.2950    -1.4820     2.6940 o          1 MOL       0.000000
      4 C1           2.8780    -2.0180     1.9100 c3         1 MOL       0.000000
      5 C2           1.8550    -2.8880     2.6270 c3         1 MOL       0.000000
      6 C3           0.5150    -2.7930     1.9100 c3         1 MOL       0.000000
      7 C4           0.0400    -1.3460     1.9100 c3         1 MOL       0.000000
      8 C5          -1.3000    -1.2510     1.1920 c3         1 MOL       0.000000
      9 C6          -1.7760     0.1960     1.1920 c3         1 MOL       0.000000
     10 N1          -3.0520     0.2860     0.5090 n          1 MOL       0.000000
     11 C7          -3.6770     1.4970     0.3840 c          1 MOL       0.000000
     12 N2          -4.8810     1.5830    -0.2610 n          1 MOL       0.000000
     13 C8          -4.9200     1.8060    -1.5860 cc         1 MOL       0.000000
     14 N3          -3.7170     1.9370    -2.2170 na         1 MOL       0.000000
     15 C9          -3.6570     2.1650    -3.5580 cc         1 MOL       0.000000
     16 C10         -4.7900     2.2610    -4.2600 cd         1 MOL       0.000000
     17 C11         -6.1270     2.1200    -3.5810 c          1 MOL       0.000000
     18 N4          -6.0870     1.8740    -2.1230 nd         1 MOL       0.000000
     19 O1          -3.1660     2.4910     0.8430 o          1 MOL       0.000000
     20 O2          -7.1680     2.2030    -4.1900 o          1 MOL       0.000000
     21 C12         -2.3320     2.3070    -4.2420 c3         1 MOL       0.000000
     22 O3           5.1090    -0.6380     1.0370 os         1 MOL       0.000000
     23 C13          6.3340    -0.0210     0.7480 c3         1 MOL       0.000000
     24 C14          6.1840     0.8520    -0.4910 c3         1 MOL       0.000000
     25 H            4.2480    -2.6910     3.4160 hn         1 MOL       0.000000
     26 H1           2.5320    -0.9610     1.9110 h1         1 MOL       0.000000
     27 H2           2.9940    -2.3710     0.8600 h1         1 MOL       0.000000
     28 H3           2.2010    -3.9460     2.6260 hc         1 MOL       0.000000
     29 H4           1.7390    -2.5360     3.6770 hc         1 MOL       0.000000
     30 H5          -0.2330    -3.4290     2.4350 hc         1 MOL       0.000000
     31 H6           0.6300    -3.1460     0.8600 hc         1 MOL       0.000000
     32 H7           0.7870    -0.7110     1.3840 hc         1 MOL       0.000000
     33 H8          -0.0760    -0.9940     2.9590 hc         1 MOL       0.000000
     34 H9          -2.0480    -1.8870     1.7180 hc         1 MOL       0.000000
     35 H10         -1.1850    -1.6040     0.1430 hc         1 MOL       0.000000
     36 H11         -1.0280     0.8310     0.6670 h1         1 MOL       0.000000
     37 H12         -1.8910     0.5480     2.2420 h1         1 MOL       0.000000
     38 H13         -3.4800    -0.5460     0.1240 hn         1 MOL       0.000000
     39 H14         -5.7430     1.4780     0.2600 hn         1 MOL       0.000000
     40 H15         -2.8280     1.8610    -1.6630 hn         1 MOL       0.000000
     41 H16         -4.7460     2.4460    -5.3430 ha         1 MOL       0.000000
     42 H17         -2.4920     2.4880    -5.3280 hc         1 MOL       0.000000
     43 H18         -1.7780     3.1660    -3.8010 hc         1 MOL       0.000000
     44 H19         -1.7420     1.3730    -4.1040 hc         1 MOL       0.000000
     45 H20          6.6440     0.6110     1.6100 h1         1 MOL       0.000000
     46 H21          7.1070    -0.8000     0.5610 h1         1 MOL       0.000000
     47 H22          7.1560     1.3420    -0.7210 hc         1 MOL       0.000000
     48 H23          5.8740     0.2210    -1.3540 hc         1 MOL       0.000000
     49 H24          5.4110     1.6310    -0.3040 hc         1 MOL       0.000000
@<TRIPOS>BOND
     1     1     2 1   
     2     1     3 2   
     3     1    22 1   
     4     2     4 1   
     5     2    25 1   
     6     4     5 1   
     7     4    26 1   
     8     4    27 1   
     9     5     6 1   
    10     5    28 1   
    11     5    29 1   
    12     6     7 1   
    13     6    30 1   
    14     6    31 1   
    15     7     8 1   
    16     7    32 1   
    17     7    33 1   
    18     8     9 1   
    19     8    34 1   
    20     8    35 1   
    21     9    10 1   
    22     9    36 1   
    23     9    37 1   
    24    10    11 1   
    25    10    38 1   
    26    11    12 1   
    27    11    19 2   
    28    12    13 1   
    29    12    39 1   
    30    13    14 1   
    31    13    18 2   
    32    14    15 1   
    33    14    40 1   
    34    15    16 2   
    35    15    21 1   
    36    16    17 1   
    37    16    41 1   
    38    17    18 1   
    39    17    20 2   
    40    21    42 1   
    41    21    43 1   
    42    21    44 1   
    43    22    23 1   
    44    23    24 1   
    45    23    45 1   
    46    23    46 1   
    47    24    47 1   
    48    24    48 1   
    49    24    49 1   
@<TRIPOS>SUBSTRUCTURE
     1 MOL         1 TEMP              0 ****  ****    0 ROOT
