@<TRIPOS>MOLECULE
*****
   40    39     1     0     0
SMALL
bcc


@<TRIPOS>ATOM
      1 O            0.9100     0.0510    -0.0600 oh         1 UNL      -0.599800
      2 C            0.4620     0.8010     1.0570 c3         1 UNL       0.127400
      3 C1           1.0490     0.2340     2.3450 c3         1 UNL      -0.123400
      4 C2           2.5810     0.3060     2.3550 c3         1 UNL      -0.079400
      5 C3           3.0760     1.7490     2.2080 c3         1 UNL      -0.080400
      6 C4           2.5790     2.6210     3.3660 c3         1 UNL      -0.078400
      7 C5           3.1050     2.0910     4.7040 c3         1 UNL      -0.079400
      8 C6           4.6370     2.1040     4.7200 c3         1 UNL      -0.079400
      9 C7           5.1630     3.5310     4.5350 c3         1 UNL      -0.078400
     10 C8           4.6660     4.4390     5.6650 c3         1 UNL      -0.080400
     11 C9           5.1610     3.9430     7.0270 c3         1 UNL      -0.079400
     12 C10          6.6920     3.9350     7.0990 c3         1 UNL      -0.123400
     13 C11          7.2800     5.3220     6.8670 c3         1 UNL       0.127400
     14 O1           6.8320     6.2210     7.8670 oh         1 UNL      -0.599800
     15 H            1.8870     0.1170    -0.0930 ho         1 UNL       0.396000
     16 H1           0.7270     1.8520     0.9050 h1         1 UNL       0.044700
     17 H2          -0.6300     0.7540     1.0860 h1         1 UNL       0.044700
     18 H3           0.6300     0.7710     3.2050 hc         1 UNL       0.053700
     19 H4           0.7500    -0.8110     2.4660 hc         1 UNL       0.053700
     20 H5           2.9570    -0.1460     3.2800 hc         1 UNL       0.038700
     21 H6           3.0080    -0.3110     1.5600 hc         1 UNL       0.038700
     22 H7           4.1690     1.7540     2.1450 hc         1 UNL       0.040700
     23 H8           2.7610     2.1870     1.2570 hc         1 UNL       0.040700
     24 H9           2.8820     3.6600     3.1970 hc         1 UNL       0.040700
     25 H10          1.4870     2.6720     3.3940 hc         1 UNL       0.040700
     26 H11          2.6860     2.6830     5.5230 hc         1 UNL       0.040200
     27 H12          2.7430     1.0800     4.9090 hc         1 UNL       0.040200
     28 H13          4.9990     1.6570     5.6510 hc         1 UNL       0.040200
     29 H14          5.0560     1.4550     3.9450 hc         1 UNL       0.040200
     30 H15          6.2550     3.5160     4.4780 hc         1 UNL       0.040700
     31 H16          4.8600     3.9490     3.5700 hc         1 UNL       0.040700
     32 H17          4.9810     5.4690     5.4740 hc         1 UNL       0.040700
     33 H18          3.5730     4.5010     5.6760 hc         1 UNL       0.040700
     34 H19          4.7340     4.5620     7.8210 hc         1 UNL       0.038700
     35 H20          4.7850     2.9350     7.2390 hc         1 UNL       0.038700
     36 H21          6.9920     3.5600     8.0830 hc         1 UNL       0.053700
     37 H22          7.1110     3.2330     6.3680 hc         1 UNL       0.053700
     38 H23          8.3710     5.2830     6.9040 h1         1 UNL       0.044700
     39 H24          7.0150     5.7280     5.8850 h1         1 UNL       0.044700
     40 H25          5.8550     6.2690     7.8120 ho         1 UNL       0.396000
@<TRIPOS>BOND
     1     1     2 1   
     2     2     3 1   
     3     3     4 1   
     4     4     5 1   
     5     5     6 1   
     6     6     7 1   
     7     7     8 1   
     8     8     9 1   
     9     9    10 1   
    10    10    11 1   
    11    11    12 1   
    12    12    13 1   
    13    13    14 1   
    14     1    15 1   
    15     2    16 1   
    16     2    17 1   
    17     3    18 1   
    18     3    19 1   
    19     4    20 1   
    20     4    21 1   
    21     5    22 1   
    22     5    23 1   
    23     6    24 1   
    24     6    25 1   
    25     7    26 1   
    26     7    27 1   
    27     8    28 1   
    28     8    29 1   
    29     9    30 1   
    30     9    31 1   
    31    10    32 1   
    32    10    33 1   
    33    11    34 1   
    34    11    35 1   
    35    12    36 1   
    36    12    37 1   
    37    13    38 1   
    38    13    39 1   
    39    14    40 1   
@<TRIPOS>SUBSTRUCTURE
     1 UNL         1 TEMP              0 ****  ****    0 ROOT
