@<TRIPOS>MOLECULE
PEO
   38    37     1     0     0
SMALL
No Charge or Current Charge


@<TRIPOS>ATOM
      1 O            3.5970     0.3350     0.0420 os         1 PEO       0.000000
      2 C            4.7730    -0.4800    -0.0430 c3         1 PEO       0.000000
      3 C1           5.9600     0.4740     0.0580 c3         1 PEO       0.000000
      4 O1           7.1570    -0.3120    -0.0250 os         1 PEO       0.000000
      5 C2           8.3510     0.4780     0.0580 c3         1 PEO       0.000000
      6 C3           9.5320    -0.4820    -0.0430 c3         1 PEO       0.000000
      7 O2          10.7270     0.3090     0.0400 os         1 PEO       0.000000
      8 C4          11.9230    -0.4780    -0.0420 c3         1 PEO       0.000000
      9 C5          13.1100     0.4770     0.0580 c3         1 PEO       0.000000
     10 O3          14.2860    -0.3380    -0.0290 os         1 PEO       0.000000
     11 C6          15.5180     0.3920     0.0460 c3         1 PEO       0.000000
     12 C7          16.6270    -0.6520    -0.0650 c3         1 PEO       0.000000
     13 H            4.7890    -1.1960     0.7840 h1         1 PEO       0.000000
     14 H1           4.7900    -1.0090    -1.0010 h1         1 PEO       0.000000
     15 H2           5.9360     1.1930    -0.7670 h1         1 PEO       0.000000
     16 H3           5.9350     1.0050     1.0140 h1         1 PEO       0.000000
     17 H4           8.3770     1.1960    -0.7670 h1         1 PEO       0.000000
     18 H5           8.3770     1.0080     1.0150 h1         1 PEO       0.000000
     19 H6           9.5060    -1.1990     0.7830 h1         1 PEO       0.000000
     20 H7           9.5060    -1.0120    -0.9990 h1         1 PEO       0.000000
     21 H8          11.9480    -1.1950     0.7830 h1         1 PEO       0.000000
     22 H9          11.9480    -1.0090    -0.9980 h1         1 PEO       0.000000
     23 H10         13.0940     1.1940    -0.7690 h1         1 PEO       0.000000
     24 H11         13.0950     1.0060     1.0150 h1         1 PEO       0.000000
     25 H12         15.5780     1.1050    -0.7810 h1         1 PEO       0.000000
     26 H13         15.5810     0.9170     1.0040 h1         1 PEO       0.000000
     27 C8           2.3650    -0.3940    -0.0360 c3         1 PEO       0.000000
     28 C9           1.2570     0.6500     0.0720 c3         1 PEO       0.000000
     29 H14          2.3030    -1.1070     0.7910 h1         1 PEO       0.000000
     30 H15          2.3050    -0.9190    -0.9940 h1         1 PEO       0.000000
     31 O4           0.0000     0.0000     0.0000 oh         1 PEO       0.000000
     32 H16          1.3450     1.3690    -0.7480 h1         1 PEO       0.000000
     33 H17          1.3410     1.1820     1.0240 h1         1 PEO       0.000000
     34 H18         -0.6550     0.7080     0.0710 ho         1 PEO       0.000000
     35 O5          17.8830    -0.0000    -0.0000 oh         1 PEO       0.000000
     36 H19         16.5390    -1.1840    -1.0160 h1         1 PEO       0.000000
     37 H20         16.5430    -1.3690     0.7560 h1         1 PEO       0.000000
     38 H21         18.5380    -0.7070    -0.0770 ho         1 PEO       0.000000
@<TRIPOS>BOND
     1     1     2 1   
     2     1    27 1   
     3     2     3 1   
     4     2    13 1   
     5     2    14 1   
     6     3     4 1   
     7     3    15 1   
     8     3    16 1   
     9     4     5 1   
    10     5     6 1   
    11     5    17 1   
    12     5    18 1   
    13     6     7 1   
    14     6    19 1   
    15     6    20 1   
    16     7     8 1   
    17     8     9 1   
    18     8    21 1   
    19     8    22 1   
    20     9    10 1   
    21     9    23 1   
    22     9    24 1   
    23    10    11 1   
    24    11    12 1   
    25    11    25 1   
    26    11    26 1   
    27    12    35 1   
    28    12    36 1   
    29    12    37 1   
    30    27    28 1   
    31    27    29 1   
    32    27    30 1   
    33    28    31 1   
    34    28    32 1   
    35    28    33 1   
    36    31    34 1   
    37    35    38 1   
@<TRIPOS>SUBSTRUCTURE
     1 PEO         1 TEMP              0 ****  ****    0 ROOT
