@<TRIPOS>MOLECULE
TFS
   31    31     1     0     0
SMALL
bcc


@<TRIPOS>ATOM
      1 C           -4.7250     0.4540    -3.7860 c3         1 TFS      -0.086600
      2 C1          -3.6220    -0.5440    -3.4000 c3         1 TFS      -0.025400
      3 H           -4.2990     1.3410    -4.2670 hc         1 TFS       0.033367
      4 H1          -5.2890     0.7830    -2.9050 hc         1 TFS       0.033367
      5 H2          -5.4380     0.0160    -4.4920 hc         1 TFS       0.033367
      6 C2          -2.5400     0.2030    -2.6110 c3         1 TFS      -0.086600
      7 H3          -2.1340     1.0330    -3.2010 hc         1 TFS       0.033367
      8 H4          -1.7040    -0.4580    -2.3580 hc         1 TFS       0.033367
      9 H5          -2.9380     0.6270    -1.6810 hc         1 TFS       0.033367
     10 C3          -4.2140    -1.7660    -2.7010 ca         1 TFS      -0.042300
     11 H6          -3.1470    -0.9040    -4.3230 hc         1 TFS       0.045700
     12 C4          -5.1320    -2.5720    -3.4010 ca         1 TFS      -0.160500
     13 C5          -5.7520    -3.6650    -2.7900 ca         1 TFS      -0.020000
     14 C6          -5.4400    -3.9780    -1.4680 ca         1 TFS      -0.314500
     15 C7          -4.5100    -3.2140    -0.7600 ca         1 TFS      -0.020000
     16 C8          -3.8990    -2.1190    -1.3790 ca         1 TFS      -0.160500
     17 S           -6.2980    -5.2970    -0.6320 sy         1 TFS       1.523000
     18 O           -7.3150    -5.7820    -1.5400 o          1 TFS      -0.668700
     19 O1          -6.6300    -4.7840     0.6820 o          1 TFS      -0.712300
     20 N           -5.0800    -6.4350    -0.5310 ne         1 TFS      -1.060100
     21 S1          -5.2750    -7.6350     0.6300 sy         1 TFS       1.692400
     22 C9          -4.2530    -8.9350    -0.1260 c3         1 TFS       0.555700
     23 F           -2.9610    -8.5320    -0.3060 f          1 TFS      -0.279967
     24 F1          -4.7080    -9.2970    -1.3610 f          1 TFS      -0.279967
     25 F2          -4.2040   -10.0740     0.6210 f          1 TFS      -0.279967
     26 O2          -4.6360    -7.1720     1.8530 o          1 TFS      -0.683800
     27 O3          -6.6600    -8.0730     0.6540 o          1 TFS      -0.683800
     28 H7          -4.2720    -3.4410     0.2770 ha         1 TFS       0.150500
     29 H8          -3.1910    -1.5360    -0.7940 ha         1 TFS       0.123000
     30 H9          -5.3930    -2.3360    -4.4320 ha         1 TFS       0.123000
     31 H10         -6.4890    -4.2400    -3.3480 ha         1 TFS       0.150500
@<TRIPOS>BOND
     1     1     2 1   
     2     1     3 1   
     3     1     4 1   
     4     1     5 1   
     5     2     6 1   
     6     6     7 1   
     7     6     8 1   
     8     6     9 1   
     9     2    10 1   
    10     2    11 1   
    11    10    12 ar  
    12    12    13 ar  
    13    13    14 ar  
    14    14    15 ar  
    15    15    16 ar  
    16    16    10 ar  
    17    14    17 1   
    18    17    18 1   
    19    17    19 2   
    20    17    20 2   
    21    20    21 1   
    22    21    22 1   
    23    22    23 1   
    24    22    24 1   
    25    22    25 1   
    26    21    26 2   
    27    21    27 2   
    28    15    28 1   
    29    16    29 1   
    30    12    30 1   
    31    13    31 1   
@<TRIPOS>SUBSTRUCTURE
     1 TFS         1 TEMP              0 ****  ****    0 ROOT
