@<TRIPOS>MOLECULE
tfsi.pdb
   15    14     1     0     0
SMALL
bcc


@<TRIPOS>ATOM
      1 C           -8.0510    -0.8320     0.4710 c3         1 TFS       0.554700
      2 S           -7.2280     1.0010    -0.1230 s6         1 TFS       1.483700
      3 F           -7.2030    -1.6230     1.2040 f          1 TFS      -0.271633
      4 F1          -8.4430    -1.6400    -0.5670 f          1 TFS      -0.271633
      5 F2          -9.1700    -0.7170     1.2530 f          1 TFS      -0.271633
      6 N           -6.1160     0.4880    -0.8940 ne         1 TFS      -1.059100
      7 S1          -5.0040    -0.0260    -1.6660 sy         1 TFS       1.682400
      8 C1          -4.1830     1.8070    -2.2630 c3         1 TFS       0.554700
      9 F3          -5.0320     2.5950    -2.9990 f          1 TFS      -0.271633
     10 F4          -3.0630     1.6920    -3.0430 f          1 TFS      -0.271633
     11 F5          -3.7950     2.6190    -1.2270 f          1 TFS      -0.271633
     12 O           -8.3010     1.5520    -0.8080 o          1 TFS      -0.613200
     13 O1          -3.9300    -0.5740    -0.9810 o          1 TFS      -0.656800
     14 O2          -5.2720    -0.5990    -2.9000 o          1 TFS      -0.656800
     15 O3          -6.9600     1.5710     1.1130 o          1 TFS      -0.656800
@<TRIPOS>BOND
     1    10     8 1   
     2     9     8 1   
     3    14     7 2   
     4     8     7 1   
     5     8    11 1   
     6     7    13 2   
     7     7     6 1   
     8     6     2 2   
     9    12     2 1   
    10     4     1 1   
    11     2     1 1   
    12     2    15 2   
    13     1     3 1   
    14     1     5 1   
@<TRIPOS>SUBSTRUCTURE
     1 TFS         1 TEMP              0 ****  ****    0 ROOT
