@<TRIPOS>MOLECULE
pf6.pdb
 7 6 0 0 0
SMALL
GASTEIGER

@<TRIPOS>ATOM
      1  P         -1.3840    0.0860   -0.0190 P.3     1  61          0.6235
      2  F         -0.2040    1.3150   -0.2420 F       1  61         -0.1039
      3  F         -2.6330    1.2490   -0.2110 F       1  61         -0.1039
      4  F         -2.5630   -1.1430    0.2040 F       1  61         -0.1039
      5  F         -0.1340   -1.0780    0.1730 F       1  61         -0.1039
      6  F         -1.3700    0.3800    1.6730 F       1  61         -0.1039
      7  F         -1.3980   -0.2090   -1.7110 F       1  61         -0.1039
@<TRIPOS>BOND
     1     1     7    1
     2     1     2    1
     3     1     3    1
     4     1     5    1
     5     1     4    1
     6     1     6    1
