@<TRIPOS>MOLECULE
pf6.pdb
    7     6     1     0     0
SMALL
bcc


@<TRIPOS>ATOM
      1 P           -1.3840     0.0860    -0.0190 p5         1 61        1.241600
      2 F           -0.2040     1.3150    -0.2420 f          1 61       -0.374100
      3 F1          -2.6330     1.2490    -0.2110 f          1 61       -0.374100
      4 F2          -2.5630    -1.1430     0.2040 f          1 61       -0.374100
      5 F3          -0.1340    -1.0780     0.1730 f          1 61       -0.374100
      6 F4          -1.3700     0.3800     1.6730 f          1 61       -0.374100
      7 F5          -1.3980    -0.2090    -1.7110 f          1 61       -0.374100
@<TRIPOS>BOND
     1     1     7 1   
     2     1     2 1   
     3     1     3 1   
     4     1     5 1   
     5     1     4 1   
     6     1     6 1   
@<TRIPOS>SUBSTRUCTURE
     1 61          1 TEMP              0 ****  ****    0 ROOT
