@<TRIPOS>MOLECULE
*****
 40 39 0 0 0
SMALL
GASTEIGER

@<TRIPOS>ATOM
      1 O           0.9096    0.0514   -0.0604 O.3     1  UNL1       -0.3950
      2 C           0.4619    0.8009    1.0571 C.3     1  UNL1        0.0442
      3 C           1.0493    0.2344    2.3451 C.3     1  UNL1       -0.0297
      4 C           2.5807    0.3065    2.3550 C.3     1  UNL1       -0.0510
      5 C           3.0758    1.7492    2.2079 C.3     1  UNL1       -0.0530
      6 C           2.5788    2.6211    3.3658 C.3     1  UNL1       -0.0531
      7 C           3.1047    2.0912    4.7037 C.3     1  UNL1       -0.0531
      8 C           4.6370    2.1041    4.7203 C.3     1  UNL1       -0.0531
      9 C           5.1629    3.5312    4.5351 C.3     1  UNL1       -0.0531
     10 C           4.6659    4.4395    5.6646 C.3     1  UNL1       -0.0530
     11 C           5.1610    3.9427    7.0270 C.3     1  UNL1       -0.0510
     12 C           6.6925    3.9346    7.0994 C.3     1  UNL1       -0.0297
     13 C           7.2798    5.3223    6.8665 C.3     1  UNL1        0.0442
     14 O           6.8321    6.2215    7.8674 O.3     1  UNL1       -0.3950
     15 H           1.8865    0.1167   -0.0930 H       1  UNL1        0.2094
     16 H           0.7268    1.8524    0.9050 H       1  UNL1        0.0557
     17 H          -0.6298    0.7545    1.0859 H       1  UNL1        0.0557
     18 H           0.6305    0.7706    3.2049 H       1  UNL1        0.0287
     19 H           0.7502   -0.8112    2.4664 H       1  UNL1        0.0287
     20 H           2.9572   -0.1460    3.2797 H       1  UNL1        0.0266
     21 H           3.0083   -0.3109    1.5599 H       1  UNL1        0.0266
     22 H           4.1691    1.7537    2.1454 H       1  UNL1        0.0265
     23 H           2.7612    2.1871    1.2568 H       1  UNL1        0.0265
     24 H           2.8821    3.6596    3.1975 H       1  UNL1        0.0265
     25 H           1.4866    2.6724    3.3941 H       1  UNL1        0.0265
     26 H           2.6860    2.6831    5.5232 H       1  UNL1        0.0265
     27 H           2.7430    1.0796    4.9087 H       1  UNL1        0.0265
     28 H           4.9988    1.6569    5.6506 H       1  UNL1        0.0265
     29 H           5.0557    1.4550    3.9453 H       1  UNL1        0.0265
     30 H           6.2551    3.5163    4.4784 H       1  UNL1        0.0265
     31 H           4.8596    3.9493    3.5697 H       1  UNL1        0.0265
     32 H           4.9806    5.4691    5.4737 H       1  UNL1        0.0265
     33 H           3.5726    4.5012    5.6756 H       1  UNL1        0.0265
     34 H           4.7335    4.5619    7.8207 H       1  UNL1        0.0266
     35 H           4.7846    2.9352    7.2387 H       1  UNL1        0.0266
     36 H           6.9916    3.5602    8.0832 H       1  UNL1        0.0287
     37 H           7.1112    3.2327    6.3684 H       1  UNL1        0.0287
     38 H           8.3715    5.2829    6.9044 H       1  UNL1        0.0557
     39 H           7.0150    5.7279    5.8845 H       1  UNL1        0.0557
     40 H           5.8553    6.2691    7.8121 H       1  UNL1        0.2094
@<TRIPOS>BOND
     1     1     2    1
     2     2     3    1
     3     3     4    1
     4     4     5    1
     5     5     6    1
     6     6     7    1
     7     7     8    1
     8     8     9    1
     9     9    10    1
    10    10    11    1
    11    11    12    1
    12    12    13    1
    13    13    14    1
    14     1    15    1
    15     2    16    1
    16     2    17    1
    17     3    18    1
    18     3    19    1
    19     4    20    1
    20     4    21    1
    21     5    22    1
    22     5    23    1
    23     6    24    1
    24     6    25    1
    25     7    26    1
    26     7    27    1
    27     8    28    1
    28     8    29    1
    29     9    30    1
    30     9    31    1
    31    10    32    1
    32    10    33    1
    33    11    34    1
    34    11    35    1
    35    12    36    1
    36    12    37    1
    37    13    38    1
    38    13    39    1
    39    14    40    1
