@<TRIPOS>MOLECULE
*****
 72 71 0 0 0
SMALL
GASTEIGER

@<TRIPOS>ATOM
      1 C           0.8350    0.0180    0.0240 C.3     1  UNL1        0.0365
      2 O           2.2560    0.0120    0.0080 O.3     1  UNL1       -0.3807
      3 C           2.7590   -0.3660   -1.2730 C.3     1  UNL1        0.0706
      4 C           4.2820   -0.3580   -1.2420 C.3     1  UNL1        0.0711
      5 O           4.7760   -0.7360   -2.5260 O.3     1  UNL1       -0.3752
      6 C           6.2020   -0.7430   -2.5500 C.3     1  UNL1        0.0711
      7 C           6.6770   -1.1510   -3.9370 C.3     1  UNL1        0.0711
      8 O           8.1030   -1.1550   -3.9580 O.3     1  UNL1       -0.3752
      9 C           8.5990   -1.5320   -5.2400 C.3     1  UNL1        0.0711
     10 C          10.1200   -1.5200   -5.2100 C.3     1  UNL1        0.0711
     11 O          10.6100   -1.8940   -6.4960 O.3     1  UNL1       -0.3752
     12 C          12.0360   -1.8860   -6.5280 C.3     1  UNL1        0.0711
     13 C          12.5000   -2.2810   -7.9230 C.3     1  UNL1        0.0711
     14 O          13.9200   -2.2110   -7.9770 O.3     1  UNL1       -0.3752
     15 C          14.4230   -2.6790   -9.2320 C.3     1  UNL1        0.0711
     16 C          15.9470   -2.6620   -9.1910 C.3     1  UNL1        0.0711
     17 O          16.3970   -3.6580   -8.2670 O.3     1  UNL1       -0.3752
     18 C          17.8120   -3.6390   -8.1230 C.3     1  UNL1        0.0711
     19 C          18.2150   -4.6350   -7.0440 C.3     1  UNL1        0.0711
     20 O          19.6380   -4.6600   -6.9460 O.3     1  UNL1       -0.3752
     21 C          20.0710   -5.5850   -5.9530 C.3     1  UNL1        0.0711
     22 C          21.5920   -5.5760   -5.9020 C.3     1  UNL1        0.0711
     23 O          22.0320   -6.5030   -4.9120 O.3     1  UNL1       -0.3752
     24 C          23.4550   -6.5300   -4.8260 C.3     1  UNL1        0.0711
     25 C          23.8700   -7.5310   -3.7570 C.3     1  UNL1        0.0711
     26 O          25.2920   -7.5590   -3.6680 O.3     1  UNL1       -0.3752
     27 C          25.7310   -8.4850   -2.6760 C.3     1  UNL1        0.0711
     28 C          27.2530   -8.4750   -2.6230 C.3     1  UNL1        0.0706
     29 O          27.7000   -9.4010   -1.6340 O.3     1  UNL1       -0.3807
     30 C          29.1180   -9.4230   -1.5500 C.3     1  UNL1        0.0365
     31 H           0.5040    0.3120    1.0230 H       1  UNL1        0.0524
     32 H           0.4460   -0.9820   -0.1940 H       1  UNL1        0.0524
     33 H           0.4470    0.7400   -0.7010 H       1  UNL1        0.0524
     34 H           2.4000    0.3310   -2.0400 H       1  UNL1        0.0582
     35 H           2.3990   -1.3680   -1.5380 H       1  UNL1        0.0582
     36 H           4.6430   -1.0560   -0.4780 H       1  UNL1        0.0583
     37 H           4.6440    0.6440   -0.9790 H       1  UNL1        0.0583
     38 H           6.5890   -1.4470   -1.8030 H       1  UNL1        0.0583
     39 H           6.5880    0.2530   -2.3030 H       1  UNL1        0.0583
     40 H           6.2910   -0.4480   -4.6850 H       1  UNL1        0.0583
     41 H           6.2930   -2.1480   -4.1840 H       1  UNL1        0.0583
     42 H           8.2370   -0.8340   -6.0050 H       1  UNL1        0.0583
     43 H           8.2400   -2.5340   -5.5050 H       1  UNL1        0.0583
     44 H          10.4850   -2.2190   -4.4480 H       1  UNL1        0.0583
     45 H          10.4790   -0.5180   -4.9460 H       1  UNL1        0.0583
     46 H          12.4350   -2.5920   -5.7890 H       1  UNL1        0.0583
     47 H          12.4150   -0.8890   -6.2760 H       1  UNL1        0.0583
     48 H          12.0650   -1.6070   -8.6710 H       1  UNL1        0.0583
     49 H          12.1560   -3.2970   -8.1500 H       1  UNL1        0.0583
     50 H          14.0640   -2.0170  -10.0280 H       1  UNL1        0.0583
     51 H          14.0640   -3.6990   -9.4090 H       1  UNL1        0.0583
     52 H          16.3020   -1.6790   -8.8640 H       1  UNL1        0.0583
     53 H          16.3500   -2.8910  -10.1830 H       1  UNL1        0.0583
     54 H          18.1570   -2.6360   -7.8440 H       1  UNL1        0.0583
     55 H          18.2860   -3.9040   -9.0750 H       1  UNL1        0.0583
     56 H          17.8360   -5.6330   -7.2950 H       1  UNL1        0.0583
     57 H          17.7760   -4.3410   -6.0830 H       1  UNL1        0.0583
     58 H          19.7120   -6.5930   -6.1920 H       1  UNL1        0.0583
     59 H          19.6630   -5.3070   -4.9730 H       1  UNL1        0.0583
     60 H          21.9500   -4.5680   -5.6610 H       1  UNL1        0.0583
     61 H          21.9980   -5.8500   -6.8830 H       1  UNL1        0.0583
     62 H          23.8370   -5.5340   -4.5730 H       1  UNL1        0.0583
     63 H          23.8860   -6.8180   -5.7930 H       1  UNL1        0.0583
     64 H          23.4880   -8.5270   -4.0130 H       1  UNL1        0.0583
     65 H          23.4360   -7.2440   -2.7920 H       1  UNL1        0.0583
     66 H          25.3730   -9.4930   -2.9180 H       1  UNL1        0.0583
     67 H          25.3220   -8.2100   -1.6960 H       1  UNL1        0.0583
     68 H          27.6080   -7.4660   -2.3830 H       1  UNL1        0.0582
     69 H          27.6590   -8.7470   -3.6050 H       1  UNL1        0.0582
     70 H          29.4070  -10.1450   -0.7820 H       1  UNL1        0.0524
     71 H          29.5010   -8.4380   -1.2670 H       1  UNL1        0.0524
     72 H          29.5530   -9.7360   -2.5050 H       1  UNL1        0.0524
@<TRIPOS>BOND
     1     1     2    1
     2     1    31    1
     3     1    32    1
     4     1    33    1
     5     2     3    1
     6     3     4    1
     7     3    34    1
     8     3    35    1
     9     4     5    1
    10     4    36    1
    11     4    37    1
    12     5     6    1
    13     6     7    1
    14     6    38    1
    15     6    39    1
    16     7     8    1
    17     7    40    1
    18     7    41    1
    19     8     9    1
    20     9    10    1
    21     9    42    1
    22     9    43    1
    23    10    11    1
    24    10    44    1
    25    10    45    1
    26    11    12    1
    27    12    13    1
    28    12    46    1
    29    12    47    1
    30    13    14    1
    31    13    48    1
    32    13    49    1
    33    14    15    1
    34    15    16    1
    35    15    50    1
    36    15    51    1
    37    16    17    1
    38    16    52    1
    39    16    53    1
    40    17    18    1
    41    18    19    1
    42    18    54    1
    43    18    55    1
    44    19    20    1
    45    19    56    1
    46    19    57    1
    47    20    21    1
    48    21    22    1
    49    21    58    1
    50    21    59    1
    51    22    23    1
    52    22    60    1
    53    22    61    1
    54    23    24    1
    55    24    25    1
    56    24    62    1
    57    24    63    1
    58    25    26    1
    59    25    64    1
    60    25    65    1
    61    26    27    1
    62    27    28    1
    63    27    66    1
    64    27    67    1
    65    28    29    1
    66    28    68    1
    67    28    69    1
    68    29    30    1
    69    30    70    1
    70    30    71    1
    71    30    72    1
