@<TRIPOS>MOLECULE
PEO
   43    42     1     0     0
SMALL
bcc


@<TRIPOS>ATOM
      1 C           -1.4340     1.9580    -0.0000 c3         1 PEO       0.130400
      2 C1           3.9680    -7.1380    -0.0000 c3         1 PEO       0.132400
      3 C2          -0.1150     1.1970    -0.0000 c3         1 PEO       0.129400
      4 C3           3.7610    -8.6470    -0.0000 c3         1 PEO      -0.097100
      5 C4          -2.4240     3.9800    -0.0000 c3         1 PEO       0.130400
      6 O            2.7220    -6.4950    -0.0000 os         1 PEO      -0.428600
      7 C5          -2.2180     5.4890    -0.0000 c3         1 PEO       0.127400
      8 C6          -3.2080     7.5100    -0.0000 c3         1 PEO       0.132400
      9 C7          -4.5270     8.2720    -0.0000 c3         1 PEO      -0.097100
     10 O1          -1.1790     3.3370    -0.0000 os         1 PEO      -0.430600
     11 O2          -3.4640     6.1320    -0.0000 os         1 PEO      -0.428600
     12 C8           0.8750    -0.8250    -0.0000 c3         1 PEO       0.129400
     13 C9           0.6690    -2.3340    -0.0000 c3         1 PEO       0.130400
     14 O3          -0.3710    -0.1820    -0.0000 os         1 PEO      -0.429600
     15 C10          1.6590    -4.3550    -0.0000 c3         1 PEO       0.130400
     16 O4           1.9140    -2.9770    -0.0000 os         1 PEO      -0.430600
     17 C11          2.9780    -5.1170    -0.0000 c3         1 PEO       0.127400
     18 H           -2.0170     1.6900    -0.9090 h1         1 PEO       0.042700
     19 H1          -2.0180     1.6890     0.9090 h1         1 PEO       0.042700
     20 H2           4.5380    -6.8420     0.9090 h1         1 PEO       0.025700
     21 H3           4.5380    -6.8420    -0.9090 h1         1 PEO       0.025700
     22 H4           0.4680     1.4660     0.9090 h1         1 PEO       0.041700
     23 H5           0.4680     1.4660    -0.9090 h1         1 PEO       0.041700
     24 H6           4.7500    -9.1570    -0.0000 hc         1 PEO       0.045367
     25 H7           3.1920    -8.9430    -0.9090 hc         1 PEO       0.045367
     26 H8           3.1910    -8.9430     0.9090 hc         1 PEO       0.045367
     27 H9          -2.9940     3.6840     0.9090 h1         1 PEO       0.042700
     28 H10         -2.9950     3.6840    -0.9090 h1         1 PEO       0.042700
     29 H11         -1.6480     5.7850    -0.9090 h1         1 PEO       0.039700
     30 H12         -1.6480     5.7850     0.9090 h1         1 PEO       0.039700
     31 H13         -2.6250     7.7790    -0.9090 h1         1 PEO       0.025700
     32 H14         -2.6250     7.7790     0.9090 h1         1 PEO       0.025700
     33 H15         -4.3240     9.3660    -0.0000 hc         1 PEO       0.045367
     34 H16         -5.1100     8.0030     0.9090 hc         1 PEO       0.045367
     35 H17         -5.1110     8.0030    -0.9090 hc         1 PEO       0.045367
     36 H18          1.4450    -0.5290     0.9090 h1         1 PEO       0.041700
     37 H19          1.4450    -0.5280    -0.9090 h1         1 PEO       0.041700
     38 H20          0.0990    -2.6290    -0.9090 h1         1 PEO       0.042700
     39 H21          0.0980    -2.6300     0.9090 h1         1 PEO       0.042700
     40 H22          1.0760    -4.6240     0.9090 h1         1 PEO       0.042700
     41 H23          1.0750    -4.6240    -0.9090 h1         1 PEO       0.042700
     42 H24          3.5610    -4.8480     0.9090 h1         1 PEO       0.039700
     43 H25          3.5610    -4.8480    -0.9090 h1         1 PEO       0.039700
@<TRIPOS>BOND
     1     1     3 1   
     2     1    10 1   
     3     1    18 1   
     4     1    19 1   
     5     2     4 1   
     6     2     6 1   
     7     2    20 1   
     8     2    21 1   
     9     3    14 1   
    10     3    22 1   
    11     3    23 1   
    12     4    24 1   
    13     4    25 1   
    14     4    26 1   
    15     5     7 1   
    16     5    10 1   
    17     5    27 1   
    18     5    28 1   
    19     6    17 1   
    20     7    11 1   
    21     7    29 1   
    22     7    30 1   
    23     8     9 1   
    24     8    11 1   
    25     8    31 1   
    26     8    32 1   
    27     9    33 1   
    28     9    34 1   
    29     9    35 1   
    30    12    13 1   
    31    12    14 1   
    32    12    36 1   
    33    12    37 1   
    34    13    16 1   
    35    13    38 1   
    36    13    39 1   
    37    15    16 1   
    38    15    17 1   
    39    15    40 1   
    40    15    41 1   
    41    17    42 1   
    42    17    43 1   
@<TRIPOS>SUBSTRUCTURE
     1 PEO         1 TEMP              0 ****  ****    0 ROOT
