@<TRIPOS>MOLECULE
*****
 45 44 0 0 0
SMALL
GASTEIGER

@<TRIPOS>ATOM
      1 O           0.7419    0.3378    1.1217 O.3     1  UNL1       -0.3950
      2 C           1.9103    0.0389    1.8857 C.3     1  UNL1        0.0442
      3 C           1.9695    0.9607    3.1183 C.3     1  UNL1       -0.0297
      4 H           2.7982    0.1882    1.2649 H       1  UNL1        0.0557
      5 H           1.8734   -1.0061    2.2063 H       1  UNL1        0.0557
      6 C           3.2232    0.6727    3.9708 C.3     1  UNL1       -0.0505
      7 H           1.0720    0.8126    3.7247 H       1  UNL1        0.0287
      8 H           1.9799    2.0041    2.7926 H       1  UNL1        0.0287
      9 C           3.2744    1.5959    5.2067 C.3     1  UNL1       -0.0429
     10 H           4.1197    0.8235    3.3638 H       1  UNL1        0.0266
     11 H           3.2131   -0.3715    4.2939 H       1  UNL1        0.0266
     12 C           4.5242    1.3258    6.0753 C.3     1  UNL1        0.0449
     13 H           2.3758    1.4441    5.8104 H       1  UNL1        0.0270
     14 H           3.2803    2.6390    4.8797 H       1  UNL1        0.0270
     15 C           4.5916    2.2288    7.2931 C.2     1  UNL1        0.3071
     16 H           5.4281    1.4733    5.4793 H       1  UNL1        0.0377
     17 H           4.5243    0.2853    6.4091 H       1  UNL1        0.0377
     18 O           5.6736    1.9613    8.0579 O.3     1  UNL1       -0.4646
     19 C           5.8737    2.7510    9.2550 C.3     1  UNL1        0.0925
     20 C           7.1475    2.2681    9.9715 C.3     1  UNL1       -0.0185
     21 H           5.0057    2.6304    9.9101 H       1  UNL1        0.0697
     22 H           5.9752    3.8037    8.9743 H       1  UNL1        0.0697
     23 C           7.3915    3.0879   11.2558 C.3     1  UNL1       -0.0495
     24 H           8.0036    2.3683    9.2996 H       1  UNL1        0.0298
     25 H           7.0433    1.2094   10.2219 H       1  UNL1        0.0298
     26 C           8.6521    2.6070   12.0054 C.3     1  UNL1       -0.0429
     27 H           6.5224    2.9990   11.9128 H       1  UNL1        0.0266
     28 H           7.5021    4.1440   10.9964 H       1  UNL1        0.0266
     29 C           8.8866    3.4315   13.2917 C.3     1  UNL1        0.0449
     30 H           9.5234    2.6971   11.3517 H       1  UNL1        0.0270
     31 H           8.5404    1.5513   12.2661 H       1  UNL1        0.0270
     32 C          10.1075    2.9807   14.0706 C.2     1  UNL1        0.3071
     33 H           8.0117    3.3560   13.9420 H       1  UNL1        0.0377
     34 H           9.0059    4.4872   13.0359 H       1  UNL1        0.0377
     35 O          10.2771    3.7162   15.1912 O.3     1  UNL1       -0.4649
     36 C          11.3930    3.4078   16.0605 C.3     1  UNL1        0.0896
     37 C          11.3720    4.3797   17.2504 C.3     1  UNL1       -0.0306
     38 H          12.3270    3.5184   15.5017 H       1  UNL1        0.0694
     39 H          11.2988    2.3773   16.4155 H       1  UNL1        0.0694
     40 H          11.4641    5.4112   16.9031 H       1  UNL1        0.0262
     41 H          12.2023    4.1670   17.9271 H       1  UNL1        0.0262
     42 H          10.4376    4.2819   17.8077 H       1  UNL1        0.0262
     43 H           0.8000    1.2604    0.8128 H       1  UNL1        0.2094
     44 O           3.7723    3.0932    7.5449 O.2     1  UNL1       -0.2509
     45 O          10.8355    2.0662   13.7316 O.2     1  UNL1       -0.2509
@<TRIPOS>BOND
     1     1     2    1
     2     1    43    1
     3     2     3    1
     4     2     4    1
     5     2     5    1
     6     3     6    1
     7     3     7    1
     8     3     8    1
     9     6     9    1
    10     6    10    1
    11     6    11    1
    12     9    12    1
    13     9    13    1
    14     9    14    1
    15    12    15    1
    16    12    16    1
    17    12    17    1
    18    15    18    1
    19    15    44    2
    20    18    19    1
    21    19    20    1
    22    19    21    1
    23    19    22    1
    24    20    23    1
    25    20    24    1
    26    20    25    1
    27    23    26    1
    28    23    27    1
    29    23    28    1
    30    26    29    1
    31    26    30    1
    32    26    31    1
    33    29    32    1
    34    29    33    1
    35    29    34    1
    36    32    35    1
    37    32    45    2
    38    35    36    1
    39    36    37    1
    40    36    38    1
    41    36    39    1
    42    37    40    1
    43    37    41    1
    44    37    42    1
